<?xml version="1.0" encoding="UTF-8"?>

<routes>

    <!-- ========================= -->
    <!-- TIPOS DE VEHÍCULOS        -->
    <!-- ========================= -->

    <vType id="azul"
           color="0,0,1"
           accel="2.6"
           decel="4.5"
           sigma="0.5"
           length="5"
           maxSpeed="13.9"/>

    <vType id="verde"
           color="0,1,0"
           accel="2.6"
           decel="4.5"
           sigma="0.5"
           length="5"
           maxSpeed="13.9"/>

    <vType id="amarillo"
           color="1,1,0"
           accel="2.6"
           decel="4.5"
           sigma="0.5"
           length="5"
           maxSpeed="13.9"/>

    <vType id="blanco"
           color="1,1,1"
           accel="2.6"
           decel="4.5"
           sigma="0.5"
           length="5"
           maxSpeed="13.9"/>

    <vType id="violeta"
           color="1,0,1"
           accel="2.6"
           decel="4.5"
           sigma="0.5"
           length="5"
           maxSpeed="13.9"/>

    <vType id="celeste"
           color="0,1,1"
           accel="2.6"
           decel="4.5"
           sigma="0.5"
           length="5"
           maxSpeed="13.9"/>

    <!-- ========================= -->
    <!-- RUTA                      -->
    <!-- ========================= -->

    <route id="loop"
           edges="E0 E2 E8 E9 E10 E11 E12 E13 E0 E2 E8 E9 E10 E11 E12 E13 E0 E2 E8 E9 E10 E11 E12 E13 E0 E2 E8 E9 E10 E11 E12 E13 E0 E2 E8 E9 E10 E11 E12 E13 E0 E2 E8 E9 E10 E11 E12 E13 E0 E2 E8 E9 E10 E11 E12 E13"/>

    <!-- ========================= -->
    <!-- VEHÍCULOS                 -->
    <!-- ========================= -->

    <vehicle id="veh_azul_1"      type="azul"      route="loop" depart="0"/>
	
	

    <vehicle id="veh_verde_1"     type="verde"     route="loop" depart="4"/>
    <vehicle id="veh_amarillo_1"  type="amarillo"  route="loop" depart="8">
	<stop parkingArea="SmartPark01"
          until="120"/>
    </vehicle>

    <vehicle id="veh_blanco_1"    type="blanco"    route="loop" depart="12"/>
    <vehicle id="veh_violeta_1"   type="violeta"   route="loop" depart="16">
	 <stop parkingArea="SmartPark02"
          until="180"/>
    </vehicle>

    <vehicle id="veh_celeste_1"   type="celeste"   route="loop" depart="20"/>

</routes>