<?xml version="1.0" encoding="UTF-8"?>

<!-- generated on 2026-07-03T09:54:13.945704-03:00 by Eclipse SUMO netedit 1.27.1
<neteditConfiguration xmlns:xsi="http://www.w3.org/2001/XMLSchema-instance" xsi:noNamespaceSchemaLocation="http://sumo.dlr.de/xsd/neteditConfiguration.xsd">

    <input>
        <sumo-net-file value="C:\Users\LangTecnologia\OneDrive\Desktop\INGENIERIA\Sumo\011-DemoLunes\02_DemoLunes.net.xml"/>
    </input>

    <output>
        <output-file value="C:\Users\LangTecnologia\OneDrive\Desktop\INGENIERIA\Sumo\011-DemoLunes\02_DemoLunes.net.xml"/>
    </output>

    <processing>
        <offset.disable-normalization value="true"/>
    </processing>

    <junctions>
        <no-turnarounds value="true"/>
    </junctions>

    <netedit>
        <new-network value="false"/>
    </netedit>

</neteditConfiguration>
-->

<net version="1.20" junctionCornerDetail="5" limitTurnSpeed="5.50" xmlns:xsi="http://www.w3.org/2001/XMLSchema-instance" xsi:noNamespaceSchemaLocation="http://sumo.dlr.de/xsd/net_file.xsd">

    <location netOffset="0.00,0.00" convBoundary="-91.92,-30.77,131.26,37.09" origBoundary="10000000000.00,10000000000.00,-10000000000.00,-10000000000.00" projParameter="!"/>

    <edge id=":J1_0" function="internal">
        <lane id=":J1_0_0" index="0" speed="3.90" length="2.57" shape="-90.03,33.59 -89.93,34.28 -89.63,34.78 -89.13,35.08 -88.43,35.18"/>
    </edge>
    <edge id=":J10_0" function="internal">
        <lane id=":J10_0_0" index="0" speed="3.90" length="2.59" shape="129.64,-27.56 129.55,-28.27 129.25,-28.77 128.75,-29.07 128.04,-29.17"/>
    </edge>
    <edge id=":J11_0" function="internal">
        <lane id=":J11_0_0" index="0" speed="13.89" length="0.10" shape="57.23,-29.17 57.23,-29.17"/>
    </edge>
    <edge id=":J12_0" function="internal">
        <lane id=":J12_0_0" index="0" speed="13.89" length="0.10" shape="-18.25,-29.17 -18.25,-29.17"/>
    </edge>
    <edge id=":J13_0" function="internal">
        <lane id=":J13_0_0" index="0" speed="3.90" length="2.59" shape="-88.71,-29.17 -89.41,-29.07 -89.91,-28.77 -90.21,-28.27 -90.31,-27.56"/>
    </edge>
    <edge id=":J2_0" function="internal">
        <lane id=":J2_0_0" index="0" speed="13.89" length="0.30" shape="-19.14,35.18 -18.84,35.18"/>
    </edge>
    <edge id=":J4_0" function="internal">
        <lane id=":J4_0_0" index="0" speed="13.89" length="0.30" shape="55.18,35.23 55.48,35.23"/>
    </edge>
    <edge id=":J9_0" function="internal">
        <lane id=":J9_0_0" index="0" speed="3.90" length="2.58" shape="127.71,35.48 128.41,35.38 128.91,35.08 129.21,34.59 129.32,33.89"/>
    </edge>

    <edge id="E0" from="J1" to="J2" priority="-1">
        <lane id="E0_0" index="0" speed="13.89" length="69.29" shape="-88.43,35.18 -19.14,35.18"/>
    </edge>
    <edge id="E10" from="J10" to="J11" priority="-1">
        <lane id="E10_0" index="0" speed="13.89" length="70.81" shape="128.04,-29.17 57.23,-29.17"/>
    </edge>
    <edge id="E11" from="J11" to="J12" priority="-1">
        <lane id="E11_0" index="0" speed="13.89" length="75.48" shape="57.23,-29.17 -18.25,-29.17"/>
    </edge>
    <edge id="E12" from="J12" to="J13" priority="-1">
        <lane id="E12_0" index="0" speed="13.89" length="70.46" shape="-18.25,-29.17 -88.71,-29.17"/>
    </edge>
    <edge id="E13" from="J13" to="J1" priority="-1">
        <lane id="E13_0" index="0" speed="13.89" length="61.15" shape="-90.31,-27.56 -90.03,33.59"/>
    </edge>
    <edge id="E2" from="J2" to="J4" priority="-1">
        <lane id="E2_0" index="0" speed="13.89" length="74.02" shape="-18.84,35.18 55.18,35.23"/>
    </edge>
    <edge id="E8" from="J4" to="J9" priority="-1">
        <lane id="E8_0" index="0" speed="13.89" length="72.23" shape="55.48,35.23 127.71,35.48"/>
    </edge>
    <edge id="E9" from="J9" to="J10" priority="-1">
        <lane id="E9_0" index="0" speed="13.89" length="61.45" shape="129.32,33.89 129.64,-27.56"/>
    </edge>

    <junction id="J1" type="priority" x="-91.62" y="36.78" incLanes="E13_0" intLanes=":J1_0_0" shape="-88.43,36.78 -88.43,33.58 -91.63,33.59 -91.27,35.36 -90.83,35.98 -90.21,36.43 -89.41,36.69">
        <request index="0" response="0" foes="0" cont="0"/>
    </junction>
    <junction id="J10" type="priority" x="131.26" y="-30.77" incLanes="E9_0" intLanes=":J10_0_0" shape="128.04,-30.77 128.04,-27.57 131.24,-27.55 130.89,-29.34 130.45,-29.97 129.83,-30.41 129.03,-30.68">
        <request index="0" response="0" foes="0" cont="0"/>
    </junction>
    <junction id="J11" type="priority" x="57.23" y="-30.77" incLanes="E10_0" intLanes=":J11_0_0" shape="57.23,-27.57 57.23,-30.77 57.23,-27.57">
        <request index="0" response="0" foes="0" cont="0"/>
    </junction>
    <junction id="J12" type="priority" x="-18.25" y="-30.77" incLanes="E11_0" intLanes=":J12_0_0" shape="-18.25,-27.57 -18.25,-30.77 -18.25,-27.57">
        <request index="0" response="0" foes="0" cont="0"/>
    </junction>
    <junction id="J13" type="priority" x="-91.92" y="-30.77" incLanes="E12_0" intLanes=":J13_0_0" shape="-91.91,-27.56 -88.71,-27.57 -88.71,-30.77 -90.49,-30.41 -91.11,-29.97 -91.56,-29.34 -91.82,-28.54">
        <request index="0" response="0" foes="0" cont="0"/>
    </junction>
    <junction id="J2" type="priority" x="-18.99" y="36.78" incLanes="E0_0" intLanes=":J2_0_0" shape="-18.84,36.78 -18.84,33.58 -19.14,33.58 -19.14,36.78">
        <request index="0" response="0" foes="0" cont="0"/>
    </junction>
    <junction id="J4" type="priority" x="55.33" y="36.83" incLanes="E2_0" intLanes=":J4_0_0" shape="55.48,36.83 55.49,33.63 55.18,33.63 55.18,36.83">
        <request index="0" response="0" foes="0" cont="0"/>
    </junction>
    <junction id="J9" type="priority" x="130.90" y="37.09" incLanes="E8_0" intLanes=":J9_0_0" shape="130.92,33.90 127.72,33.88 127.71,37.08 129.48,36.73 130.11,36.29 130.55,35.67 130.82,34.87">
        <request index="0" response="0" foes="0" cont="0"/>
    </junction>

    <connection from="E0" to="E2" fromLane="0" toLane="0" via=":J2_0_0" dir="s" state="M"/>
    <connection from="E10" to="E11" fromLane="0" toLane="0" via=":J11_0_0" dir="s" state="M"/>
    <connection from="E11" to="E12" fromLane="0" toLane="0" via=":J12_0_0" dir="s" state="M"/>
    <connection from="E12" to="E13" fromLane="0" toLane="0" via=":J13_0_0" dir="r" state="M"/>
    <connection from="E13" to="E0" fromLane="0" toLane="0" via=":J1_0_0" dir="r" state="M"/>
    <connection from="E2" to="E8" fromLane="0" toLane="0" via=":J4_0_0" dir="s" state="M"/>
    <connection from="E8" to="E9" fromLane="0" toLane="0" via=":J9_0_0" dir="r" state="M"/>
    <connection from="E9" to="E10" fromLane="0" toLane="0" via=":J10_0_0" dir="r" state="M"/>

    <connection from=":J1_0" to="E0" fromLane="0" toLane="0" dir="r" state="M"/>
    <connection from=":J10_0" to="E10" fromLane="0" toLane="0" dir="r" state="M"/>
    <connection from=":J11_0" to="E11" fromLane="0" toLane="0" dir="s" state="M"/>
    <connection from=":J12_0" to="E12" fromLane="0" toLane="0" dir="s" state="M"/>
    <connection from=":J13_0" to="E13" fromLane="0" toLane="0" dir="r" state="M"/>
    <connection from=":J2_0" to="E2" fromLane="0" toLane="0" dir="s" state="M"/>
    <connection from=":J4_0" to="E8" fromLane="0" toLane="0" dir="s" state="M"/>
    <connection from=":J9_0" to="E9" fromLane="0" toLane="0" dir="r" state="M"/>

</net>
