<?xml version="1.0" encoding="UTF-8"?>

<configuration>

    <input>

        <net-file value="../net/PrimerProyecto.net.xml"/>

        <route-files value="../routes/PrimerProyecto.rou.xml"/>

    </input>

    <time>

        <begin value="0"/>

        <end value="200"/>

    </time>

</configuration>