<?xml version="1.0" encoding="UTF-8"?>

<additional>

    <parkingArea id="SmartPark01"
                 name="SmartPark01"
                 lane="E10_0"
                 startPos="12"
                 endPos="18"
                 roadsideCapacity="1"
                 angle="90"
                 friendlyPos="true"/>

    <parkingArea id="SmartPark02"
                 name="SmartPark02"
                 lane="E10_0"
                 startPos="48"
                 endPos="54"
                 roadsideCapacity="1"
                 angle="90"
                 friendlyPos="true"/>

</additional>