<?xml version="1.0" encoding="UTF-8"?>

<configuration>

    <input>

        <net-file value="../net/02_DemoLunes.net.xml"/>

        <route-files value="../routes/02_DemoLunes.rou.xml"/>

<additional-files value="../additional/parking.add.xml"/>

    </input>

    <time>

        <begin value="0"/>

        <end value="400"/>

    </time>

</configuration>